Circuit: * C:\Users\Nick's Desktop\OneDrive\Documents\Projects\PoE\Sims\Flyback.asc

Direct Newton iteration for .op point succeeded.

Date: Thu Aug 08 01:11:35 2024
Total elapsed time: 4.479 seconds.

tnom = 27
temp = 27
method = modified trap
totiter = 706650
traniter = 706618
tranpoints = 288563
accept = 201936
rejected = 86627
matrix size = 38
fillins = 65
solver = Normal
Matrix Compiler1: 6.28 KB object code size  0.8/0.4/[0.3]
Matrix Compiler2: 4.47 KB object code size  0.3/0.4/[0.2]

