Circuit: * C:\Users\Nick's Desktop\OneDrive\Documents\Projects\PoE\Sims\Flyback.asc

Direct Newton iteration for .op point succeeded.

Date: Fri Aug 02 00:15:50 2024
Total elapsed time: 2.240 seconds.

tnom = 27
temp = 27
method = modified trap
totiter = 401333
traniter = 401301
tranpoints = 155868
accept = 122204
rejected = 33664
matrix size = 36
fillins = 54
solver = Normal
Matrix Compiler1: 5.63 KB object code size  0.8/0.4/[0.3]
Matrix Compiler2: 4.08 KB object code size  0.3/0.4/[0.3]

