Circuit: * C:\Users\Nick's Desktop\OneDrive\Documents\Projects\PoE\Sims\Flyback.asc

Direct Newton iteration for .op point succeeded.

Date: Tue Jul 30 22:19:17 2024
Total elapsed time: 1.025 seconds.

tnom = 27
temp = 27
method = modified trap
totiter = 179248
traniter = 179216
tranpoints = 70041
accept = 55428
rejected = 14613
matrix size = 34
fillins = 50
solver = Normal
Matrix Compiler1: 5.34 KB object code size  0.7/0.4/[0.3]
Matrix Compiler2: 3.92 KB object code size  0.3/0.4/[0.2]

